/*--------------------------------*- C++ -*----------------------------------*\
| =========                 |                                                 |
| \\      /  F ield         | OpenFOAM: The Open Source CFD Toolbox           |
|  \\    /   O peration     | Version:  2.3.0                                 |
|   \\  /    A nd           | Web:      www.OpenFOAM.org                      |
|    \\/     M anipulation  |                                                 |
\*---------------------------------------------------------------------------*/
FoamFile
{
    version     2.0;
    format      ascii;
    class       volVectorField;
    object      U;
}
// * * * * * * * * * * * * * * * * * * * * * * * * * * * * * * * * * * * * * //

dimensions      [0 1 -1 0 0 0 0];

internalField  uniform (-1000 0 0);

boundaryField
{
    Inflow
    {
        type  fixedValue;
        value  uniform (-1000 0 0);  
    }
    
    Outflow
    {
	type zeroGradient;
    }
    
    Wall
    {
	type	slip;
    }

    
    empty
    {
        type            empty;
    }
}

// ************************************************************************* //
